LAMMPS (3 Mar 2020)
#---------------------------------------------
units lj
boundary p p p
atom_style full
read_data input.data
  orthogonal box = (0 0 0) to (34 34 34)
  reading atoms ...
  27950 atoms
  scanning bonds ...
  reading bonds ...
  8700 bonds

group polyA type 2
6000 atoms in group polyA
group sticker type 6
3000 atoms in group sticker
group counterions type 3
3000 atoms in group counterions
group chain	type 2 6
9000 atoms in group chain
group filler type 4
950 atoms in group filler
group water	type 1
13100 atoms in group water
group salt type 5
1900 atoms in group salt
group exc type 1 2 3 5 6
27000 atoms in group exc

mass 1 1.0
mass 2 1.0
mass 3 1.0
mass 4 1.0
mass 5 1.0
mass 6 1.0

#---------------------------------------------

variable prefact equal ramp(10,300)
pair_style soft 2.5
pair_coeff * * 10.0 1.4
fix change all adapt 1 pair soft a * * v_prefact
bond_style fene
bond_coeff 1 30.0 1.5 1.0 1.0
special_bonds fene

#---------------------------------------------

velocity all create 0.8 818185 dist gaussian

fix pt exc nvt temp 0.8 0.8 0.5
fix ri filler rigid/nvt molecule temp 0.8 0.8 0.5
50 rigid bodies with 950 atoms

#---------------------------------------------

timestep 0.005
neigh_modify every 1 delay 0 exclude molecule/inter filler
thermo 10000
thermo_style custom step temp press etotal vol

dump 1 chain  custom 100000 chains_before.lammpstrj id mol type x y z
dump 2 filler custom 100000 filler_before.lammpstrj id mol type x y z
dump 3 water  custom 100000 water_before.lammpstrj  id mol type x y z
dump 4 counterions  custom 100000 counterions_before.lammpstrj  id mol type x y z
dump 5 salt custom 100000 salt_before.lammpstrj  id mol type x y z

#----calculate the density/number value "BEFORE"-----
compute par exc chunk/atom bin/1d z lower 1.0
fix allDensity exc ave/chunk 50 500 1000000 par density/number ave running file density_before.txt

run 2000000
  update every 1 steps, delay 0 steps, check yes
Step Temp Press TotEng Volume
0   0.79925315     5.201425    17.544284        39304
Averages over the last 101 of 201 rows, steps 1000000 to 2000000:
Temp Press TotEng Volume
0.800005 197.548 59.3433 39304
Loop time of 1020 on 216 procs for 2000000 steps with 27950 atoms

unfix change
#---------------------------------------------

pair_style lj/cut 2.5
pair_coeff * * 1.0 1.0 2.5
pair_coeff 4 4 1.0 1.0 1.12

unfix pt
fix pt exc npt iso 0.02 0.02 0.05 temp 0.8 0.8 0.5

restart 100000 record1.equil  record2.equil
write_data para.data pair ij
  update every 1 steps, delay 0 steps, check yes
run 5000000
Step Temp Press TotEng Volume
2000000   0.79607792    9.5313076    5.4092822        39304
Averages over the last 251 of 501 rows, steps 4500000 to 7000000:
Temp Press TotEng Volume
0.800365 -0.110443 2.51284 34590.6
Loop time of 3957.05 on 216 procs for 5000000 steps with 27950 atoms

write_restart equil.restart

#---------------------------------------------
undump 1
undump 2
undump 3
undump 4
undump 5
unfix allDensity
unfix pt
#---------------------------------------------

fix pt exc nvt temp 0.8 0.8 0.5
fix allDensity exc ave/chunk 50 500 1000000 par density/number ave running file density_equi.txt

set type 6 charge -1.0
  3000 settings made for charge
set type 3 charge 1.0
  3000 settings made for charge
set type 5 charge -1.0
  1900 settings made for charge
set type 4 charge 2.0
  950 settings made for charge

pair_style hybrid/overlay lj/cut 2.5 coul/long 2.5
pair_modify pair lj/cut shift yes
pair_coeff * * lj/cut 1.0 1.0 2.5
pair_coeff 4 6 lj/cut 1.0 1.0 2.5
pair_coeff 3*6 3 coul/long
pair_coeff 3*6 4 coul/long
pair_coeff 3*6 5 coul/long
pair_coeff 3*6 6 coul/long

kspace_style pppm 0.0001
write_data parameters.data pair ij
PPPM initialization ...
  G vector (1/distance) = 1.17008
  grid = 96 96 96
  stencil order = 5
  estimated absolute RMS force accuracy = 0.000129317
  estimated relative force accuracy = 0.000129317
  3d grid and FFT values/proc = 9261 4608
  update every 1 steps, delay 0 steps, check yes

dump 1 chain  custom 50000 chains_equi.lammpstrj id mol type x y z
dump 2 filler custom 50000 filler_equi.lammpstrj id mol type x y z
dump 3 water  custom 50000 water_equi.lammpstrj  id mol type x y z
dump 4 counterions  custom 50000 counterions_equi.lammpstrj  id mol type x y z
dump 5 salt custom 50000 salt_equi.lammpstrj  id mol type x y z

run 5000000
PPPM initialization ...
  G vector (1/distance) = 1.17008
  grid = 96 96 96
  stencil order = 5
  estimated absolute RMS force accuracy = 0.000129317
  estimated relative force accuracy = 0.000129317
  3d grid and FFT values/proc = 9261 4608
  update every 1 steps, delay 0 steps, check yes
Step Temp Press TotEng Volume
7000000   0.79052196  -0.36939292    3.8248949      34514.4
Averages over the last 251 of 501 rows, steps 9500000 to 12000000:
Temp Press TotEng Volume
0.80023 -0.172065 2.93338 34514.4
Loop time of 49028.7 on 216 procs for 5000000 steps with 27950 atoms

write_restart attract.restart
PPPM initialization ...
  G vector (1/distance) = 1.17008
  grid = 96 96 96
  stencil order = 5
  estimated absolute RMS force accuracy = 0.000129317
  estimated relative force accuracy = 0.000129317
  3d grid and FFT values/proc = 9261 4608
  update every 1 steps, delay 0 steps, check yes
